/*--------------------------------*- C++ -*----------------------------------*\
  =========                 |
  \\      /  F ield         | OpenFOAM: The Open Source CFD Toolbox
   \\    /   O peration     | Website:  https://openfoam.org
    \\  /    A nd           | Version:  6
     \\/     M anipulation  |
\*---------------------------------------------------------------------------*/
FoamFile
{
    version     2.0;
    format      ascii;
    class       dictionary;
    location    "system";
    object      controlDict;
}
// * * * * * * * * * * * * * * * * * * * * * * * * * * * * * * * * * * * * * //

application     reactingFoam;

//startFrom       startTime;
startFrom       latestTime;

startTime       0;

stopAt          endTime;
//stopAt          writeNow;

endTime         0.01;

deltaT          1e-6;

writeControl    adjustableRunTime;

writeInterval   0.001;

purgeWrite      0;

writeFormat     ascii;

writePrecision  6;

writeCompression off;

timeFormat      general;

timePrecision   6;

runTimeModifiable true;

//adjustTimeStep  yes;
adjustTimeStep  no;

maxCo           0.3;

functions
{
   #include "fieldAverage"
   //#include "turbulenceFields"
   //#include "resolvedTKE"
   //#include "subgridTKE"
   //#include "totalTKE"
   //#include "TKEratio"
}

// ************************************************************************* //
